1

   Abaqus 2020                                  Date 06-Nov-2025   Time 11:38:06
   For use by Supplied by Team-SolidSQUAD under license from Dassault Systemes or its subsidiary.



                         The Abaqus Software is a product of:

                           Dassault Systemes SIMULIA Corp.
                           1301 Atwood Avenue, Suite 101W
                              Johnston, RI 02919, USA
 


                   The Abaqus Software is available only under license
                   from Dassault Systemes or its subsidiary and may be
                   used or reproduced only in accordance with the terms
                   of such license.
 
                          On machine DESKTOP-F27P8N2 
                          you are authorized to run
                           until 31-Dec-2055

                          Your site id is:  


 
                    For assistance or any other information you may
                    obtain contact information for your local office
                    from the world wide web at:

                      http://www.3ds.com/products/simulia/locations/

 
                * * * * * * * * * * * * * * * * * * * * * * * * * * * * * * 
                *                                                         * 
                *                   *****************                     * 
                *                   *  N O T I C E  *                     * 
                *                   *****************                     * 
                *                                                         * 
                *                                                         * 
                *                       Abaqus 2020                       * 
                *                                                         * 
                *          BUILD ID: 2019_09_13-19.49.31 163176           * 
                *                                                         * 
                *                                                         * 
                *  Please make sure you are using                         * 
                *  release Abaqus 2020 manuals                            * 
                *  plus the notes accompanying this release.              * 
                *                                                         * 
                *                                                         * 
                *                                                         * 
                *                                                         * 
                * * * * * * * * * * * * * * * * * * * * * * * * * * * * * * 


 



     PROCESSING PART, INSTANCE, AND ASSEMBLY INFORMATION
   *******************************************************


     END PROCESSING PART, INSTANCE, AND ASSEMBLY INFORMATION
   ***********************************************************




     OPTIONS BEING PROCESSED
   ***************************


  *HEADING
  *Node
  *Element, type=mass, elset=mass
  *MATERIAL, NAME=ARRUDA_BOYCE
  *HYPERELASTIC, ARRUDA-BOYCE, TEST DATA INPUT
  *UNIAXIAL TEST DATA

 ***WARNING: DATA POINT CORRESPONDING TO ZERO STRESS AND ZERO STRAIN WILL BE 
             IGNORED SINCE THIS CONDITION IS AUTOMATICALLY SATISFIED BY THE 
             STRAIN ENERGY FUNCTION
 LINE IMAGE: 0.0,0.0
     ARRUDA-BOYCE TEST DATA INPUT: CONVERGENCE
     ROOT-MEAN-SQUARE ERROR (PERCENTAGE) =  12.55
  *MATERIAL, NAME=OGDEN_N1
  *HYPERELASTIC, OGDEN, N=1, TEST DATA INPUT
  *UNIAXIAL TEST DATA

 ***WARNING: DATA POINT CORRESPONDING TO ZERO STRESS AND ZERO STRAIN WILL BE 
             IGNORED SINCE THIS CONDITION IS AUTOMATICALLY SATISFIED BY THE 
             STRAIN ENERGY FUNCTION
 LINE IMAGE: 0.0,0.0
     OGDEN TEST DATA INPUT: CONVERGENCE FOR N =  1
     ROOT-MEAN-SQUARE ERROR (PERCENTAGE) =  10.16
  *MATERIAL, NAME=POLY_N1
  *HYPERELASTIC, POLYNOMIAL, N=1, TEST DATA INPUT
  *UNIAXIAL TEST DATA

 ***WARNING: DATA POINT CORRESPONDING TO ZERO STRESS AND ZERO STRAIN WILL BE 
             IGNORED SINCE THIS CONDITION IS AUTOMATICALLY SATISFIED BY THE 
             STRAIN ENERGY FUNCTION
 LINE IMAGE: 0.0,0.0
  *MATERIAL, NAME=REDUCED_POLYNOMIAL_N1
  *HYPERELASTIC, REDUCED POLYNOMIAL, N=1, TEST DATA INPUT
  *UNIAXIAL TEST DATA

 ***WARNING: DATA POINT CORRESPONDING TO ZERO STRESS AND ZERO STRAIN WILL BE 
             IGNORED SINCE THIS CONDITION IS AUTOMATICALLY SATISFIED BY THE 
             STRAIN ENERGY FUNCTION
 LINE IMAGE: 0.0,0.0
  *MATERIAL, NAME=REDUCED_POLYNOMIAL_N3
  *HYPERELASTIC, REDUCED POLYNOMIAL, N=3, TEST DATA INPUT
  *UNIAXIAL TEST DATA

 ***WARNING: DATA POINT CORRESPONDING TO ZERO STRESS AND ZERO STRAIN WILL BE 
             IGNORED SINCE THIS CONDITION IS AUTOMATICALLY SATISFIED BY THE 
             STRAIN ENERGY FUNCTION
 LINE IMAGE: 0.0,0.0
  *MATERIAL, NAME=VAN_DER_WAALS
  *HYPERELASTIC, VAN DER WAALS, TEST DATA INPUT
  *UNIAXIAL TEST DATA

 ***WARNING: DATA POINT CORRESPONDING TO ZERO STRESS AND ZERO STRAIN WILL BE 
             IGNORED SINCE THIS CONDITION IS AUTOMATICALLY SATISFIED BY THE 
             STRAIN ENERGY FUNCTION
 LINE IMAGE: 0.0,0.0

 ***WARNING: CURVE FITTING VAN DER WAALS - NO CONVERGENCE FOR VARIABLE BETA - 
             BETA IS SET TO A FIXED VALUE OF ZERO
     VAN DER WAALS TEST DATA INPUT: CONVERGENCE
     ROOT-MEAN-SQUARE ERROR (PERCENTAGE) =   8.69
  *Mass, elset=mass
  *Mass, elset=mass
  *STEP, NLGEOM
  *STEP, NLGEOM
  *STEP, NLGEOM
  *STATIC
  *End Step
  *STEP, NLGEOM
  *STATIC
  *End Step
1

   Abaqus 2020                                  Date 06-Nov-2025   Time 11:38:06
   For use by Supplied by Team-SolidSQUAD under license from Dassault Systemes or its subsidiary.

                                                                                     


                              E L E M E N T   D E F I N I T I O N S

       NUMBER   TYPE    PROPERTY    NODES FORMING ELEMENT
                        REFERENCE

          1   MASS          1          1





                              M A S S   P R O P E R T I E S


  PROPERTY NUMBER         1

     CONCENTRATED MASS VALUE =    1.0000    





                         P H Y S I C A L   C O N S T A N T S






                         M A T E R I A L   D E S C R I P T I O N




  MATERIAL NAME: ARRUDA_BOYCE                                                                    


     HYPERELASTIC MATERIAL PROPERTIES




          UNIAXIAL TEST DATA

          NOMINAL STRAIN     NOMINAL STRESS(TEST)     NOMINAL STRESS(Abaqus)           
            -0.3000                -0.2274                -0.2620    
            -0.2900                -0.2168                -0.2489    
            -0.2800                -0.2067                -0.2362    
            -0.2700                -0.1971                -0.2240    
            -0.2600                -0.1880                -0.2122    
            -0.2500                -0.1793                -0.2008    
            -0.2400                -0.1708                -0.1898    
            -0.2300                -0.1627                -0.1791    
            -0.2200                -0.1549                -0.1687    
            -0.2100                -0.1473                -0.1587    
            -0.2000                -0.1400                -0.1490    
            -0.1900                -0.1328                -0.1395    
            -0.1800                -0.1257                -0.1304    
            -0.1700                -0.1187                -0.1214    
            -0.1600                -0.1118                -0.1128    
            -0.1500                -0.1049                -0.1043    
            -0.1400                -9.7990E-02            -9.6139E-02
            -0.1300                -9.1000E-02            -8.8147E-02
            -0.1200                -8.3890E-02            -8.0361E-02
            -0.1100                -7.6730E-02            -7.2769E-02
            -0.1000                -6.9530E-02            -6.5365E-02
            -9.0000E-02            -6.2290E-02            -5.8139E-02
            -8.0000E-02            -5.5050E-02            -5.1085E-02
            -7.0000E-02            -4.7820E-02            -4.4194E-02
            -6.0000E-02            -4.0610E-02            -3.7459E-02
            -5.0000E-02            -3.3410E-02            -3.0875E-02
            -4.0000E-02            -2.6260E-02            -2.4435E-02
            -3.0000E-02            -1.9160E-02            -1.8133E-02
            -2.0000E-02            -1.2130E-02            -1.1963E-02
            -1.0000E-02            -5.3710E-03            -5.9205E-03
             1.0000E-02             9.5380E-03             5.8033E-03
             2.0000E-02             1.7450E-02             1.1494E-02
             3.0000E-02             2.4890E-02             1.7076E-02
             4.0000E-02             3.1980E-02             2.2554E-02
             5.0000E-02             3.8760E-02             2.7932E-02
             6.0000E-02             4.5340E-02             3.3214E-02
             7.0000E-02             5.1730E-02             3.8402E-02
             8.0000E-02             5.7940E-02             4.3502E-02
             9.0000E-02             6.4000E-02             4.8515E-02
             0.1000                 6.9880E-02             5.3445E-02
             0.1100                 7.5610E-02             5.8294E-02
             0.1200                 8.1180E-02             6.3067E-02
             0.1300                 8.6640E-02             6.7765E-02
             0.1400                 9.1970E-02             7.2391E-02
             0.1500                 9.7160E-02             7.6948E-02
             0.1600                 0.1022                 8.1438E-02
             0.1700                 0.1071                 8.5863E-02
             0.1800                 0.1119                 9.0225E-02
             0.1900                 0.1166                 9.4527E-02
             0.2000                 0.1212                 9.8771E-02
             0.2100                 0.1258                 0.1030    
             0.2200                 0.1302                 0.1071    
             0.2300                 0.1346                 0.1112    
             0.2400                 0.1388                 0.1152    
             0.2500                 0.1430                 0.1192    
             0.2600                 0.1471                 0.1231    
             0.2700                 0.1511                 0.1270    
             0.2800                 0.1551                 0.1308    
             0.2900                 0.1589                 0.1346    
             0.3000                 0.1627                 0.1384    
             0.3100                 0.1665                 0.1421    
             0.3200                 0.1702                 0.1458    
             0.3300                 0.1737                 0.1494    
             0.3400                 0.1773                 0.1530    
             0.3500                 0.1807                 0.1566    
             0.3600                 0.1841                 0.1601    
             0.3700                 0.1875                 0.1636    
             0.3800                 0.1907                 0.1670    
             0.3900                 0.1940                 0.1704    
             0.4000                 0.1971                 0.1738    
             0.4100                 0.2002                 0.1772    
             0.4200                 0.2032                 0.1805    
             0.4300                 0.2063                 0.1838    
             0.4400                 0.2093                 0.1871    
             0.4500                 0.2123                 0.1904    
             0.4600                 0.2152                 0.1936    
             0.4700                 0.2181                 0.1968    
             0.4800                 0.2210                 0.2000    
             0.4900                 0.2237                 0.2031    
             0.5000                 0.2265                 0.2062    
             0.5100                 0.2292                 0.2093    
             0.5200                 0.2319                 0.2124    
             0.5300                 0.2346                 0.2155    
             0.5400                 0.2372                 0.2185    
             0.5500                 0.2398                 0.2215    
             0.5600                 0.2424                 0.2245    
             0.5700                 0.2449                 0.2275    
             0.5800                 0.2475                 0.2304    
             0.5900                 0.2499                 0.2334    
             0.6000                 0.2524                 0.2363    
             0.6100                 0.2549                 0.2392    
             0.6200                 0.2573                 0.2421    
             0.6300                 0.2597                 0.2449    
             0.6400                 0.2621                 0.2478    
             0.6500                 0.2645                 0.2506    
             0.6600                 0.2668                 0.2534    
             0.6700                 0.2692                 0.2562    
             0.6800                 0.2715                 0.2590    
             0.6900                 0.2738                 0.2618    
             0.7000                 0.2761                 0.2645    
             0.7100                 0.2783                 0.2673    
             0.7200                 0.2805                 0.2700    
             0.7300                 0.2827                 0.2727    
             0.7400                 0.2849                 0.2754    
             0.7500                 0.2870                 0.2781    
             0.7600                 0.2890                 0.2808    
             0.7700                 0.2911                 0.2834    
             0.7800                 0.2931                 0.2861    
             0.7900                 0.2951                 0.2887    
             0.8000                 0.2971                 0.2914    
             0.8100                 0.2990                 0.2940    
             0.8200                 0.3010                 0.2966    
             0.8300                 0.3029                 0.2992    
             0.8400                 0.3048                 0.3018    
             0.8500                 0.3068                 0.3044    
             0.8600                 0.3086                 0.3069    
             0.8700                 0.3105                 0.3095    
             0.8800                 0.3124                 0.3120    
             0.8900                 0.3142                 0.3146    
             0.9000                 0.3160                 0.3171    
             0.9100                 0.3177                 0.3196    
             0.9200                 0.3194                 0.3221    
             0.9300                 0.3212                 0.3246    
             0.9400                 0.3229                 0.3271    
             0.9500                 0.3245                 0.3296    
             0.9600                 0.3261                 0.3321    
             0.9700                 0.3277                 0.3345    
             0.9800                 0.3293                 0.3370    
             0.9900                 0.3308                 0.3395    
              1.000                 0.3324                 0.3419    
              1.010                 0.3339                 0.3443    
              1.020                 0.3354                 0.3468    
              1.030                 0.3370                 0.3492    
              1.040                 0.3384                 0.3516    
              1.050                 0.3399                 0.3540    
              1.060                 0.3413                 0.3564    
              1.070                 0.3427                 0.3588    
              1.080                 0.3442                 0.3612    
              1.090                 0.3456                 0.3636    
              1.100                 0.3470                 0.3660    
              1.110                 0.3484                 0.3684    
              1.120                 0.3497                 0.3707    
              1.130                 0.3510                 0.3731    
              1.140                 0.3523                 0.3754    
              1.150                 0.3535                 0.3778    
              1.160                 0.3547                 0.3801    
              1.170                 0.3559                 0.3825    
              1.180                 0.3571                 0.3848    
              1.190                 0.3583                 0.3871    
              1.200                 0.3594                 0.3895    
              1.210                 0.3605                 0.3918    
              1.220                 0.3617                 0.3941    
              1.230                 0.3628                 0.3964    
              1.240                 0.3640                 0.3987    
              1.250                 0.3651                 0.4010    
              1.260                 0.3662                 0.4033    
              1.270                 0.3674                 0.4056    
              1.280                 0.3685                 0.4079    
              1.290                 0.3696                 0.4101    
              1.300                 0.3706                 0.4124    
              1.310                 0.3717                 0.4147    
              1.320                 0.3728                 0.4170    
              1.330                 0.3739                 0.4192    
              1.340                 0.3750                 0.4215    
              1.350                 0.3761                 0.4237    
              1.360                 0.3773                 0.4260    
              1.370                 0.3785                 0.4282    
              1.380                 0.3797                 0.4305    
              1.390                 0.3809                 0.4327    
              1.400                 0.3822                 0.4350    
              1.410                 0.3834                 0.4372    
              1.420                 0.3847                 0.4394    
              1.430                 0.3860                 0.4417    
              1.440                 0.3872                 0.4439    
              1.450                 0.3884                 0.4461    
              1.460                 0.3897                 0.4483    
              1.470                 0.3909                 0.4505    
              1.480                 0.3920                 0.4528    
              1.490                 0.3932                 0.4550    
              1.500                 0.3944                 0.4572    
              1.510                 0.3955                 0.4594    
              1.520                 0.3967                 0.4616    
              1.530                 0.3978                 0.4638    
              1.540                 0.3989                 0.4660    
              1.550                 0.4000                 0.4682    
              1.560                 0.4011                 0.4703    
              1.570                 0.4022                 0.4725    
              1.580                 0.4032                 0.4747    
              1.590                 0.4043                 0.4769    
              1.600                 0.4052                 0.4791    

          FITTING ERROR:    2.991    


     HYPERELASTICITY - ARRUDA-BOYCE STRAIN ENERGY FUNCTION

                       MU             MU_0             LAMBDA_M             D
                  0.195371255       0.195371262        4142.30511        0.00000000    



                       STABILITY LIMIT INFORMATION


        UNIAXIAL TENSION:        STABLE FOR ALL STRAINS
        UNIAXIAL COMPRESSION:    STABLE FOR ALL STRAINS
        BIAXIAL TENSION:         STABLE FOR ALL STRAINS
        BIAXIAL COMPRESSION:     STABLE FOR ALL STRAINS
        PLANAR TENSION:          STABLE FOR ALL STRAINS
        PLANAR COMPRESSION:      STABLE FOR ALL STRAINS
        VOLUMETRIC TENSION:      STABLE FOR ALL VOLUME RATIOS
        VOLUMETRIC COMPRESSION:  STABLE FOR ALL VOLUME RATIOS



  MATERIAL NAME: OGDEN_N1                                                                        


     HYPERELASTIC MATERIAL PROPERTIES




          UNIAXIAL TEST DATA

          NOMINAL STRAIN     NOMINAL STRESS(TEST)     NOMINAL STRESS(Abaqus)           
            -0.3000                -0.2274                -0.2925    
            -0.2900                -0.2168                -0.2778    
            -0.2800                -0.2067                -0.2637    
            -0.2700                -0.1971                -0.2500    
            -0.2600                -0.1880                -0.2368    
            -0.2500                -0.1793                -0.2240    
            -0.2400                -0.1708                -0.2116    
            -0.2300                -0.1627                -0.1996    
            -0.2200                -0.1549                -0.1880    
            -0.2100                -0.1473                -0.1768    
            -0.2000                -0.1400                -0.1658    
            -0.1900                -0.1328                -0.1552    
            -0.1800                -0.1257                -0.1450    
            -0.1700                -0.1187                -0.1350    
            -0.1600                -0.1118                -0.1253    
            -0.1500                -0.1049                -0.1158    
            -0.1400                -9.7990E-02            -0.1066    
            -0.1300                -9.1000E-02            -9.7717E-02
            -0.1200                -8.3890E-02            -8.9021E-02
            -0.1100                -7.6730E-02            -8.0553E-02
            -0.1000                -6.9530E-02            -7.2301E-02
            -9.0000E-02            -6.2290E-02            -6.4258E-02
            -8.0000E-02            -5.5050E-02            -5.6415E-02
            -7.0000E-02            -4.7820E-02            -4.8765E-02
            -6.0000E-02            -4.0610E-02            -4.1299E-02
            -5.0000E-02            -3.3410E-02            -3.4010E-02
            -4.0000E-02            -2.6260E-02            -2.6892E-02
            -3.0000E-02            -1.9160E-02            -1.9938E-02
            -2.0000E-02            -1.2130E-02            -1.3142E-02
            -1.0000E-02            -5.3710E-03            -6.4977E-03
             1.0000E-02             9.5380E-03             6.3566E-03
             2.0000E-02             1.7450E-02             1.2577E-02
             3.0000E-02             2.4890E-02             1.8667E-02
             4.0000E-02             3.1980E-02             2.4630E-02
             5.0000E-02             3.8760E-02             3.0471E-02
             6.0000E-02             4.5340E-02             3.6194E-02
             7.0000E-02             5.1730E-02             4.1804E-02
             8.0000E-02             5.7940E-02             4.7303E-02
             9.0000E-02             6.4000E-02             5.2697E-02
             0.1000                 6.9880E-02             5.7987E-02
             0.1100                 7.5610E-02             6.3179E-02
             0.1200                 8.1180E-02             6.8274E-02
             0.1300                 8.6640E-02             7.3276E-02
             0.1400                 9.1970E-02             7.8189E-02
             0.1500                 9.7160E-02             8.3014E-02
             0.1600                 0.1022                 8.7755E-02
             0.1700                 0.1071                 9.2414E-02
             0.1800                 0.1119                 9.6994E-02
             0.1900                 0.1166                 0.1015    
             0.2000                 0.1212                 0.1059    
             0.2100                 0.1258                 0.1103    
             0.2200                 0.1302                 0.1146    
             0.2300                 0.1346                 0.1188    
             0.2400                 0.1388                 0.1229    
             0.2500                 0.1430                 0.1270    
             0.2600                 0.1471                 0.1311    
             0.2700                 0.1511                 0.1350    
             0.2800                 0.1551                 0.1389    
             0.2900                 0.1589                 0.1428    
             0.3000                 0.1627                 0.1466    
             0.3100                 0.1665                 0.1503    
             0.3200                 0.1702                 0.1540    
             0.3300                 0.1737                 0.1576    
             0.3400                 0.1773                 0.1612    
             0.3500                 0.1807                 0.1648    
             0.3600                 0.1841                 0.1682    
             0.3700                 0.1875                 0.1717    
             0.3800                 0.1907                 0.1751    
             0.3900                 0.1940                 0.1785    
             0.4000                 0.1971                 0.1818    
             0.4100                 0.2002                 0.1850    
             0.4200                 0.2032                 0.1883    
             0.4300                 0.2063                 0.1915    
             0.4400                 0.2093                 0.1946    
             0.4500                 0.2123                 0.1977    
             0.4600                 0.2152                 0.2008    
             0.4700                 0.2181                 0.2039    
             0.4800                 0.2210                 0.2069    
             0.4900                 0.2237                 0.2098    
             0.5000                 0.2265                 0.2128    
             0.5100                 0.2292                 0.2157    
             0.5200                 0.2319                 0.2186    
             0.5300                 0.2346                 0.2214    
             0.5400                 0.2372                 0.2242    
             0.5500                 0.2398                 0.2270    
             0.5600                 0.2424                 0.2298    
             0.5700                 0.2449                 0.2325    
             0.5800                 0.2475                 0.2352    
             0.5900                 0.2499                 0.2379    
             0.6000                 0.2524                 0.2406    
             0.6100                 0.2549                 0.2432    
             0.6200                 0.2573                 0.2458    
             0.6300                 0.2597                 0.2484    
             0.6400                 0.2621                 0.2509    
             0.6500                 0.2645                 0.2534    
             0.6600                 0.2668                 0.2559    
             0.6700                 0.2692                 0.2584    
             0.6800                 0.2715                 0.2609    
             0.6900                 0.2738                 0.2633    
             0.7000                 0.2761                 0.2657    
             0.7100                 0.2783                 0.2681    
             0.7200                 0.2805                 0.2705    
             0.7300                 0.2827                 0.2728    
             0.7400                 0.2849                 0.2752    
             0.7500                 0.2870                 0.2775    
             0.7600                 0.2890                 0.2798    
             0.7700                 0.2911                 0.2821    
             0.7800                 0.2931                 0.2843    
             0.7900                 0.2951                 0.2866    
             0.8000                 0.2971                 0.2888    
             0.8100                 0.2990                 0.2910    
             0.8200                 0.3010                 0.2932    
             0.8300                 0.3029                 0.2954    
             0.8400                 0.3048                 0.2975    
             0.8500                 0.3068                 0.2997    
             0.8600                 0.3086                 0.3018    
             0.8700                 0.3105                 0.3039    
             0.8800                 0.3124                 0.3060    
             0.8900                 0.3142                 0.3081    
             0.9000                 0.3160                 0.3101    
             0.9100                 0.3177                 0.3122    
             0.9200                 0.3194                 0.3142    
             0.9300                 0.3212                 0.3162    
             0.9400                 0.3229                 0.3183    
             0.9500                 0.3245                 0.3202    
             0.9600                 0.3261                 0.3222    
             0.9700                 0.3277                 0.3242    
             0.9800                 0.3293                 0.3262    
             0.9900                 0.3308                 0.3281    
              1.000                 0.3324                 0.3300    
              1.010                 0.3339                 0.3320    
              1.020                 0.3354                 0.3339    
              1.030                 0.3370                 0.3358    
              1.040                 0.3384                 0.3377    
              1.050                 0.3399                 0.3395    
              1.060                 0.3413                 0.3414    
              1.070                 0.3427                 0.3432    
              1.080                 0.3442                 0.3451    
              1.090                 0.3456                 0.3469    
              1.100                 0.3470                 0.3487    
              1.110                 0.3484                 0.3505    
              1.120                 0.3497                 0.3523    
              1.130                 0.3510                 0.3541    
              1.140                 0.3523                 0.3559    
              1.150                 0.3535                 0.3577    
              1.160                 0.3547                 0.3595    
              1.170                 0.3559                 0.3612    
              1.180                 0.3571                 0.3629    
              1.190                 0.3583                 0.3647    
              1.200                 0.3594                 0.3664    
              1.210                 0.3605                 0.3681    
              1.220                 0.3617                 0.3698    
              1.230                 0.3628                 0.3715    
              1.240                 0.3640                 0.3732    
              1.250                 0.3651                 0.3749    
              1.260                 0.3662                 0.3766    
              1.270                 0.3674                 0.3782    
              1.280                 0.3685                 0.3799    
              1.290                 0.3696                 0.3815    
              1.300                 0.3706                 0.3832    
              1.310                 0.3717                 0.3848    
              1.320                 0.3728                 0.3865    
              1.330                 0.3739                 0.3881    
              1.340                 0.3750                 0.3897    
              1.350                 0.3761                 0.3913    
              1.360                 0.3773                 0.3929    
              1.370                 0.3785                 0.3945    
              1.380                 0.3797                 0.3961    
              1.390                 0.3809                 0.3976    
              1.400                 0.3822                 0.3992    
              1.410                 0.3834                 0.4008    
              1.420                 0.3847                 0.4023    
              1.430                 0.3860                 0.4039    
              1.440                 0.3872                 0.4054    
              1.450                 0.3884                 0.4070    
              1.460                 0.3897                 0.4085    
              1.470                 0.3909                 0.4100    
              1.480                 0.3920                 0.4115    
              1.490                 0.3932                 0.4130    
              1.500                 0.3944                 0.4146    
              1.510                 0.3955                 0.4161    
              1.520                 0.3967                 0.4176    
              1.530                 0.3978                 0.4190    
              1.540                 0.3989                 0.4205    
              1.550                 0.4000                 0.4220    
              1.560                 0.4011                 0.4235    
              1.570                 0.4022                 0.4249    
              1.580                 0.4032                 0.4264    
              1.590                 0.4043                 0.4279    
              1.600                 0.4052                 0.4293    

          FITTING ERROR:    1.960    


     HYPERELASTICITY - OGDEN STRAIN ENERGY FUNCTION WITH N =   1

                      I           MU_I            ALPHA_I             D_I
 
                      1       0.214210367        1.61052759        0.00000000    



                       STABILITY LIMIT INFORMATION


        UNIAXIAL TENSION:        STABLE FOR ALL STRAINS
        UNIAXIAL COMPRESSION:    STABLE FOR ALL STRAINS
        BIAXIAL TENSION:         STABLE FOR ALL STRAINS
        BIAXIAL COMPRESSION:     STABLE FOR ALL STRAINS
        PLANAR TENSION:          STABLE FOR ALL STRAINS
        PLANAR COMPRESSION:      STABLE FOR ALL STRAINS
        VOLUMETRIC TENSION:      STABLE FOR ALL VOLUME RATIOS
        VOLUMETRIC COMPRESSION:  STABLE FOR ALL VOLUME RATIOS



  MATERIAL NAME: POLY_N1                                                                         


     HYPERELASTIC MATERIAL PROPERTIES




          UNIAXIAL TEST DATA

          NOMINAL STRAIN     NOMINAL STRESS(TEST)     NOMINAL STRESS(Abaqus)           
            -0.3000                -0.2274                -0.2899    
            -0.2900                -0.2168                -0.2747    
            -0.2800                -0.2067                -0.2601    
            -0.2700                -0.1971                -0.2460    
            -0.2600                -0.1880                -0.2325    
            -0.2500                -0.1793                -0.2195    
            -0.2400                -0.1708                -0.2070    
            -0.2300                -0.1627                -0.1949    
            -0.2200                -0.1549                -0.1833    
            -0.2100                -0.1473                -0.1720    
            -0.2000                -0.1400                -0.1611    
            -0.1900                -0.1328                -0.1506    
            -0.1800                -0.1257                -0.1404    
            -0.1700                -0.1187                -0.1306    
            -0.1600                -0.1118                -0.1210    
            -0.1500                -0.1049                -0.1118    
            -0.1400                -9.7990E-02            -0.1028    
            -0.1300                -9.1000E-02            -9.4106E-02
            -0.1200                -8.3890E-02            -8.5646E-02
            -0.1100                -7.6730E-02            -7.7426E-02
            -0.1000                -6.9530E-02            -6.9434E-02
            -9.0000E-02            -6.2290E-02            -6.1659E-02
            -8.0000E-02            -5.5050E-02            -5.4092E-02
            -7.0000E-02            -4.7820E-02            -4.6723E-02
            -6.0000E-02            -4.0610E-02            -3.9543E-02
            -5.0000E-02            -3.3410E-02            -3.2545E-02
            -4.0000E-02            -2.6260E-02            -2.5719E-02
            -3.0000E-02            -1.9160E-02            -1.9058E-02
            -2.0000E-02            -1.2130E-02            -1.2556E-02
            -1.0000E-02            -5.3710E-03            -6.2055E-03
             1.0000E-02             9.5380E-03             6.0664E-03
             2.0000E-02             1.7450E-02             1.1999E-02
             3.0000E-02             2.4890E-02             1.7804E-02
             4.0000E-02             3.1980E-02             2.3487E-02
             5.0000E-02             3.8760E-02             2.9051E-02
             6.0000E-02             4.5340E-02             3.4503E-02
             7.0000E-02             5.1730E-02             3.9845E-02
             8.0000E-02             5.7940E-02             4.5083E-02
             9.0000E-02             6.4000E-02             5.0221E-02
             0.1000                 6.9880E-02             5.5262E-02
             0.1100                 7.5610E-02             6.0210E-02
             0.1200                 8.1180E-02             6.5069E-02
             0.1300                 8.6640E-02             6.9841E-02
             0.1400                 9.1970E-02             7.4530E-02
             0.1500                 9.7160E-02             7.9140E-02
             0.1600                 0.1022                 8.3672E-02
             0.1700                 0.1071                 8.8130E-02
             0.1800                 0.1119                 9.2516E-02
             0.1900                 0.1166                 9.6833E-02
             0.2000                 0.1212                 0.1011    
             0.2100                 0.1258                 0.1053    
             0.2200                 0.1302                 0.1094    
             0.2300                 0.1346                 0.1135    
             0.2400                 0.1388                 0.1175    
             0.2500                 0.1430                 0.1214    
             0.2600                 0.1471                 0.1253    
             0.2700                 0.1511                 0.1291    
             0.2800                 0.1551                 0.1329    
             0.2900                 0.1589                 0.1367    
             0.3000                 0.1627                 0.1404    
             0.3100                 0.1665                 0.1440    
             0.3200                 0.1702                 0.1476    
             0.3300                 0.1737                 0.1512    
             0.3400                 0.1773                 0.1547    
             0.3500                 0.1807                 0.1582    
             0.3600                 0.1841                 0.1616    
             0.3700                 0.1875                 0.1650    
             0.3800                 0.1907                 0.1684    
             0.3900                 0.1940                 0.1717    
             0.4000                 0.1971                 0.1750    
             0.4100                 0.2002                 0.1783    
             0.4200                 0.2032                 0.1815    
             0.4300                 0.2063                 0.1847    
             0.4400                 0.2093                 0.1879    
             0.4500                 0.2123                 0.1910    
             0.4600                 0.2152                 0.1941    
             0.4700                 0.2181                 0.1972    
             0.4800                 0.2210                 0.2002    
             0.4900                 0.2237                 0.2033    
             0.5000                 0.2265                 0.2062    
             0.5100                 0.2292                 0.2092    
             0.5200                 0.2319                 0.2122    
             0.5300                 0.2346                 0.2151    
             0.5400                 0.2372                 0.2180    
             0.5500                 0.2398                 0.2209    
             0.5600                 0.2424                 0.2237    
             0.5700                 0.2449                 0.2266    
             0.5800                 0.2475                 0.2294    
             0.5900                 0.2499                 0.2322    
             0.6000                 0.2524                 0.2349    
             0.6100                 0.2549                 0.2377    
             0.6200                 0.2573                 0.2404    
             0.6300                 0.2597                 0.2431    
             0.6400                 0.2621                 0.2458    
             0.6500                 0.2645                 0.2485    
             0.6600                 0.2668                 0.2512    
             0.6700                 0.2692                 0.2538    
             0.6800                 0.2715                 0.2564    
             0.6900                 0.2738                 0.2591    
             0.7000                 0.2761                 0.2617    
             0.7100                 0.2783                 0.2642    
             0.7200                 0.2805                 0.2668    
             0.7300                 0.2827                 0.2694    
             0.7400                 0.2849                 0.2719    
             0.7500                 0.2870                 0.2744    
             0.7600                 0.2890                 0.2769    
             0.7700                 0.2911                 0.2795    
             0.7800                 0.2931                 0.2819    
             0.7900                 0.2951                 0.2844    
             0.8000                 0.2971                 0.2869    
             0.8100                 0.2990                 0.2893    
             0.8200                 0.3010                 0.2918    
             0.8300                 0.3029                 0.2942    
             0.8400                 0.3048                 0.2966    
             0.8500                 0.3068                 0.2990    
             0.8600                 0.3086                 0.3014    
             0.8700                 0.3105                 0.3038    
             0.8800                 0.3124                 0.3062    
             0.8900                 0.3142                 0.3085    
             0.9000                 0.3160                 0.3109    
             0.9100                 0.3177                 0.3132    
             0.9200                 0.3194                 0.3156    
             0.9300                 0.3212                 0.3179    
             0.9400                 0.3229                 0.3202    
             0.9500                 0.3245                 0.3225    
             0.9600                 0.3261                 0.3248    
             0.9700                 0.3277                 0.3271    
             0.9800                 0.3293                 0.3294    
             0.9900                 0.3308                 0.3317    
              1.000                 0.3324                 0.3340    
              1.010                 0.3339                 0.3362    
              1.020                 0.3354                 0.3385    
              1.030                 0.3370                 0.3407    
              1.040                 0.3384                 0.3430    
              1.050                 0.3399                 0.3452    
              1.060                 0.3413                 0.3474    
              1.070                 0.3427                 0.3497    
              1.080                 0.3442                 0.3519    
              1.090                 0.3456                 0.3541    
              1.100                 0.3470                 0.3563    
              1.110                 0.3484                 0.3585    
              1.120                 0.3497                 0.3607    
              1.130                 0.3510                 0.3628    
              1.140                 0.3523                 0.3650    
              1.150                 0.3535                 0.3672    
              1.160                 0.3547                 0.3693    
              1.170                 0.3559                 0.3715    
              1.180                 0.3571                 0.3737    
              1.190                 0.3583                 0.3758    
              1.200                 0.3594                 0.3779    
              1.210                 0.3605                 0.3801    
              1.220                 0.3617                 0.3822    
              1.230                 0.3628                 0.3843    
              1.240                 0.3640                 0.3865    
              1.250                 0.3651                 0.3886    
              1.260                 0.3662                 0.3907    
              1.270                 0.3674                 0.3928    
              1.280                 0.3685                 0.3949    
              1.290                 0.3696                 0.3970    
              1.300                 0.3706                 0.3991    
              1.310                 0.3717                 0.4012    
              1.320                 0.3728                 0.4033    
              1.330                 0.3739                 0.4054    
              1.340                 0.3750                 0.4074    
              1.350                 0.3761                 0.4095    
              1.360                 0.3773                 0.4116    
              1.370                 0.3785                 0.4136    
              1.380                 0.3797                 0.4157    
              1.390                 0.3809                 0.4178    
              1.400                 0.3822                 0.4198    
              1.410                 0.3834                 0.4219    
              1.420                 0.3847                 0.4239    
              1.430                 0.3860                 0.4260    
              1.440                 0.3872                 0.4280    
              1.450                 0.3884                 0.4300    
              1.460                 0.3897                 0.4321    
              1.470                 0.3909                 0.4341    
              1.480                 0.3920                 0.4361    
              1.490                 0.3932                 0.4382    
              1.500                 0.3944                 0.4402    
              1.510                 0.3955                 0.4422    
              1.520                 0.3967                 0.4442    
              1.530                 0.3978                 0.4462    
              1.540                 0.3989                 0.4482    
              1.550                 0.4000                 0.4502    
              1.560                 0.4011                 0.4522    
              1.570                 0.4022                 0.4542    
              1.580                 0.4032                 0.4562    
              1.590                 0.4043                 0.4582    
              1.600                 0.4052                 0.4602    

          FITTING ERROR:    2.689    


     HYPERELASTICITY - MOONEY-RIVLIN STRAIN ENERGY

                       D1                C10               C01
 
                   0.00000000       8.859383074E-02   1.365494839E-02



                       STABILITY LIMIT INFORMATION


        UNIAXIAL TENSION:        STABLE FOR ALL STRAINS
        UNIAXIAL COMPRESSION:    STABLE FOR ALL STRAINS
        BIAXIAL TENSION:         STABLE FOR ALL STRAINS
        BIAXIAL COMPRESSION:     STABLE FOR ALL STRAINS
        PLANAR TENSION:          STABLE FOR ALL STRAINS
        PLANAR COMPRESSION:      STABLE FOR ALL STRAINS
        VOLUMETRIC TENSION:      STABLE FOR ALL VOLUME RATIOS
        VOLUMETRIC COMPRESSION:  STABLE FOR ALL VOLUME RATIOS



  MATERIAL NAME: REDUCED_POLYNOMIAL_N1                                                           


     HYPERELASTIC MATERIAL PROPERTIES




          UNIAXIAL TEST DATA

          NOMINAL STRAIN     NOMINAL STRESS(TEST)     NOMINAL STRESS(Abaqus)           
            -0.3000                -0.2274                -0.2620    
            -0.2900                -0.2168                -0.2489    
            -0.2800                -0.2067                -0.2362    
            -0.2700                -0.1971                -0.2240    
            -0.2600                -0.1880                -0.2122    
            -0.2500                -0.1793                -0.2008    
            -0.2400                -0.1708                -0.1898    
            -0.2300                -0.1627                -0.1791    
            -0.2200                -0.1549                -0.1687    
            -0.2100                -0.1473                -0.1587    
            -0.2000                -0.1400                -0.1490    
            -0.1900                -0.1328                -0.1395    
            -0.1800                -0.1257                -0.1304    
            -0.1700                -0.1187                -0.1214    
            -0.1600                -0.1118                -0.1128    
            -0.1500                -0.1049                -0.1043    
            -0.1400                -9.7990E-02            -9.6139E-02
            -0.1300                -9.1000E-02            -8.8147E-02
            -0.1200                -8.3890E-02            -8.0361E-02
            -0.1100                -7.6730E-02            -7.2769E-02
            -0.1000                -6.9530E-02            -6.5365E-02
            -9.0000E-02            -6.2290E-02            -5.8139E-02
            -8.0000E-02            -5.5050E-02            -5.1085E-02
            -7.0000E-02            -4.7820E-02            -4.4194E-02
            -6.0000E-02            -4.0610E-02            -3.7459E-02
            -5.0000E-02            -3.3410E-02            -3.0875E-02
            -4.0000E-02            -2.6260E-02            -2.4435E-02
            -3.0000E-02            -1.9160E-02            -1.8133E-02
            -2.0000E-02            -1.2130E-02            -1.1963E-02
            -1.0000E-02            -5.3710E-03            -5.9205E-03
             1.0000E-02             9.5380E-03             5.8033E-03
             2.0000E-02             1.7450E-02             1.1494E-02
             3.0000E-02             2.4890E-02             1.7076E-02
             4.0000E-02             3.1980E-02             2.2554E-02
             5.0000E-02             3.8760E-02             2.7932E-02
             6.0000E-02             4.5340E-02             3.3214E-02
             7.0000E-02             5.1730E-02             3.8402E-02
             8.0000E-02             5.7940E-02             4.3502E-02
             9.0000E-02             6.4000E-02             4.8515E-02
             0.1000                 6.9880E-02             5.3445E-02
             0.1100                 7.5610E-02             5.8294E-02
             0.1200                 8.1180E-02             6.3067E-02
             0.1300                 8.6640E-02             6.7765E-02
             0.1400                 9.1970E-02             7.2391E-02
             0.1500                 9.7160E-02             7.6948E-02
             0.1600                 0.1022                 8.1438E-02
             0.1700                 0.1071                 8.5863E-02
             0.1800                 0.1119                 9.0225E-02
             0.1900                 0.1166                 9.4527E-02
             0.2000                 0.1212                 9.8771E-02
             0.2100                 0.1258                 0.1030    
             0.2200                 0.1302                 0.1071    
             0.2300                 0.1346                 0.1112    
             0.2400                 0.1388                 0.1152    
             0.2500                 0.1430                 0.1192    
             0.2600                 0.1471                 0.1231    
             0.2700                 0.1511                 0.1270    
             0.2800                 0.1551                 0.1308    
             0.2900                 0.1589                 0.1346    
             0.3000                 0.1627                 0.1384    
             0.3100                 0.1665                 0.1421    
             0.3200                 0.1702                 0.1458    
             0.3300                 0.1737                 0.1494    
             0.3400                 0.1773                 0.1530    
             0.3500                 0.1807                 0.1566    
             0.3600                 0.1841                 0.1601    
             0.3700                 0.1875                 0.1636    
             0.3800                 0.1907                 0.1670    
             0.3900                 0.1940                 0.1704    
             0.4000                 0.1971                 0.1738    
             0.4100                 0.2002                 0.1772    
             0.4200                 0.2032                 0.1805    
             0.4300                 0.2063                 0.1838    
             0.4400                 0.2093                 0.1871    
             0.4500                 0.2123                 0.1904    
             0.4600                 0.2152                 0.1936    
             0.4700                 0.2181                 0.1968    
             0.4800                 0.2210                 0.2000    
             0.4900                 0.2237                 0.2031    
             0.5000                 0.2265                 0.2062    
             0.5100                 0.2292                 0.2093    
             0.5200                 0.2319                 0.2124    
             0.5300                 0.2346                 0.2155    
             0.5400                 0.2372                 0.2185    
             0.5500                 0.2398                 0.2215    
             0.5600                 0.2424                 0.2245    
             0.5700                 0.2449                 0.2275    
             0.5800                 0.2475                 0.2304    
             0.5900                 0.2499                 0.2334    
             0.6000                 0.2524                 0.2363    
             0.6100                 0.2549                 0.2392    
             0.6200                 0.2573                 0.2421    
             0.6300                 0.2597                 0.2449    
             0.6400                 0.2621                 0.2478    
             0.6500                 0.2645                 0.2506    
             0.6600                 0.2668                 0.2534    
             0.6700                 0.2692                 0.2562    
             0.6800                 0.2715                 0.2590    
             0.6900                 0.2738                 0.2618    
             0.7000                 0.2761                 0.2645    
             0.7100                 0.2783                 0.2673    
             0.7200                 0.2805                 0.2700    
             0.7300                 0.2827                 0.2727    
             0.7400                 0.2849                 0.2754    
             0.7500                 0.2870                 0.2781    
             0.7600                 0.2890                 0.2808    
             0.7700                 0.2911                 0.2834    
             0.7800                 0.2931                 0.2861    
             0.7900                 0.2951                 0.2887    
             0.8000                 0.2971                 0.2914    
             0.8100                 0.2990                 0.2940    
             0.8200                 0.3010                 0.2966    
             0.8300                 0.3029                 0.2992    
             0.8400                 0.3048                 0.3018    
             0.8500                 0.3068                 0.3044    
             0.8600                 0.3086                 0.3069    
             0.8700                 0.3105                 0.3095    
             0.8800                 0.3124                 0.3120    
             0.8900                 0.3142                 0.3146    
             0.9000                 0.3160                 0.3171    
             0.9100                 0.3177                 0.3196    
             0.9200                 0.3194                 0.3221    
             0.9300                 0.3212                 0.3246    
             0.9400                 0.3229                 0.3271    
             0.9500                 0.3245                 0.3296    
             0.9600                 0.3261                 0.3321    
             0.9700                 0.3277                 0.3345    
             0.9800                 0.3293                 0.3370    
             0.9900                 0.3308                 0.3395    
              1.000                 0.3324                 0.3419    
              1.010                 0.3339                 0.3443    
              1.020                 0.3354                 0.3468    
              1.030                 0.3370                 0.3492    
              1.040                 0.3384                 0.3516    
              1.050                 0.3399                 0.3540    
              1.060                 0.3413                 0.3564    
              1.070                 0.3427                 0.3588    
              1.080                 0.3442                 0.3612    
              1.090                 0.3456                 0.3636    
              1.100                 0.3470                 0.3660    
              1.110                 0.3484                 0.3684    
              1.120                 0.3497                 0.3707    
              1.130                 0.3510                 0.3731    
              1.140                 0.3523                 0.3754    
              1.150                 0.3535                 0.3778    
              1.160                 0.3547                 0.3801    
              1.170                 0.3559                 0.3825    
              1.180                 0.3571                 0.3848    
              1.190                 0.3583                 0.3871    
              1.200                 0.3594                 0.3895    
              1.210                 0.3605                 0.3918    
              1.220                 0.3617                 0.3941    
              1.230                 0.3628                 0.3964    
              1.240                 0.3640                 0.3987    
              1.250                 0.3651                 0.4010    
              1.260                 0.3662                 0.4033    
              1.270                 0.3674                 0.4056    
              1.280                 0.3685                 0.4079    
              1.290                 0.3696                 0.4101    
              1.300                 0.3706                 0.4124    
              1.310                 0.3717                 0.4147    
              1.320                 0.3728                 0.4170    
              1.330                 0.3739                 0.4192    
              1.340                 0.3750                 0.4215    
              1.350                 0.3761                 0.4237    
              1.360                 0.3773                 0.4260    
              1.370                 0.3785                 0.4282    
              1.380                 0.3797                 0.4305    
              1.390                 0.3809                 0.4327    
              1.400                 0.3822                 0.4350    
              1.410                 0.3834                 0.4372    
              1.420                 0.3847                 0.4394    
              1.430                 0.3860                 0.4417    
              1.440                 0.3872                 0.4439    
              1.450                 0.3884                 0.4461    
              1.460                 0.3897                 0.4483    
              1.470                 0.3909                 0.4505    
              1.480                 0.3920                 0.4528    
              1.490                 0.3932                 0.4550    
              1.500                 0.3944                 0.4572    
              1.510                 0.3955                 0.4594    
              1.520                 0.3967                 0.4616    
              1.530                 0.3978                 0.4638    
              1.540                 0.3989                 0.4660    
              1.550                 0.4000                 0.4682    
              1.560                 0.4011                 0.4703    
              1.570                 0.4022                 0.4725    
              1.580                 0.4032                 0.4747    
              1.590                 0.4043                 0.4769    
              1.600                 0.4052                 0.4791    

          FITTING ERROR:    2.991    


     HYPERELASTICITY - NEO-HOOKEAN STRAIN ENERGY

                       D1                C10               C01
 
                   0.00000000       9.768563108E-02    0.00000000    



                       STABILITY LIMIT INFORMATION


        UNIAXIAL TENSION:        STABLE FOR ALL STRAINS
        UNIAXIAL COMPRESSION:    STABLE FOR ALL STRAINS
        BIAXIAL TENSION:         STABLE FOR ALL STRAINS
        BIAXIAL COMPRESSION:     STABLE FOR ALL STRAINS
        PLANAR TENSION:          STABLE FOR ALL STRAINS
        PLANAR COMPRESSION:      STABLE FOR ALL STRAINS
        VOLUMETRIC TENSION:      STABLE FOR ALL VOLUME RATIOS
        VOLUMETRIC COMPRESSION:  STABLE FOR ALL VOLUME RATIOS



  MATERIAL NAME: REDUCED_POLYNOMIAL_N3                                                           


     HYPERELASTIC MATERIAL PROPERTIES




          UNIAXIAL TEST DATA

          NOMINAL STRAIN     NOMINAL STRESS(TEST)     NOMINAL STRESS(Abaqus)           
            -0.3000                -0.2274                -0.2845    
            -0.2900                -0.2168                -0.2708    
            -0.2800                -0.2067                -0.2575    
            -0.2700                -0.1971                -0.2446    
            -0.2600                -0.1880                -0.2321    
            -0.2500                -0.1793                -0.2199    
            -0.2400                -0.1708                -0.2081    
            -0.2300                -0.1627                -0.1967    
            -0.2200                -0.1549                -0.1856    
            -0.2100                -0.1473                -0.1747    
            -0.2000                -0.1400                -0.1642    
            -0.1900                -0.1328                -0.1540    
            -0.1800                -0.1257                -0.1440    
            -0.1700                -0.1187                -0.1343    
            -0.1600                -0.1118                -0.1248    
            -0.1500                -0.1049                -0.1156    
            -0.1400                -9.7990E-02            -0.1065    
            -0.1300                -9.1000E-02            -9.7760E-02
            -0.1200                -8.3890E-02            -8.9180E-02
            -0.1100                -7.6730E-02            -8.0801E-02
            -0.1000                -6.9530E-02            -7.2617E-02
            -9.0000E-02            -6.2290E-02            -6.4619E-02
            -8.0000E-02            -5.5050E-02            -5.6801E-02
            -7.0000E-02            -4.7820E-02            -4.9156E-02
            -6.0000E-02            -4.0610E-02            -4.1679E-02
            -5.0000E-02            -3.3410E-02            -3.4362E-02
            -4.0000E-02            -2.6260E-02            -2.7200E-02
            -3.0000E-02            -1.9160E-02            -2.0188E-02
            -2.0000E-02            -1.2130E-02            -1.3320E-02
            -1.0000E-02            -5.3710E-03            -6.5926E-03
             1.0000E-02             9.5380E-03             6.4621E-03
             2.0000E-02             1.7450E-02             1.2798E-02
             3.0000E-02             2.4890E-02             1.9012E-02
             4.0000E-02             3.1980E-02             2.5107E-02
             5.0000E-02             3.8760E-02             3.1088E-02
             6.0000E-02             4.5340E-02             3.6957E-02
             7.0000E-02             5.1730E-02             4.2719E-02
             8.0000E-02             5.7940E-02             4.8377E-02
             9.0000E-02             6.4000E-02             5.3933E-02
             0.1000                 6.9880E-02             5.9391E-02
             0.1100                 7.5610E-02             6.4754E-02
             0.1200                 8.1180E-02             7.0024E-02
             0.1300                 8.6640E-02             7.5204E-02
             0.1400                 9.1970E-02             8.0296E-02
             0.1500                 9.7160E-02             8.5303E-02
             0.1600                 0.1022                 9.0227E-02
             0.1700                 0.1071                 9.5071E-02
             0.1800                 0.1119                 9.9836E-02
             0.1900                 0.1166                 0.1045    
             0.2000                 0.1212                 0.1091    
             0.2100                 0.1258                 0.1137    
             0.2200                 0.1302                 0.1182    
             0.2300                 0.1346                 0.1226    
             0.2400                 0.1388                 0.1269    
             0.2500                 0.1430                 0.1312    
             0.2600                 0.1471                 0.1354    
             0.2700                 0.1511                 0.1395    
             0.2800                 0.1551                 0.1436    
             0.2900                 0.1589                 0.1476    
             0.3000                 0.1627                 0.1516    
             0.3100                 0.1665                 0.1555    
             0.3200                 0.1702                 0.1593    
             0.3300                 0.1737                 0.1631    
             0.3400                 0.1773                 0.1669    
             0.3500                 0.1807                 0.1705    
             0.3600                 0.1841                 0.1742    
             0.3700                 0.1875                 0.1778    
             0.3800                 0.1907                 0.1813    
             0.3900                 0.1940                 0.1848    
             0.4000                 0.1971                 0.1882    
             0.4100                 0.2002                 0.1916    
             0.4200                 0.2032                 0.1950    
             0.4300                 0.2063                 0.1983    
             0.4400                 0.2093                 0.2015    
             0.4500                 0.2123                 0.2048    
             0.4600                 0.2152                 0.2079    
             0.4700                 0.2181                 0.2111    
             0.4800                 0.2210                 0.2142    
             0.4900                 0.2237                 0.2172    
             0.5000                 0.2265                 0.2202    
             0.5100                 0.2292                 0.2232    
             0.5200                 0.2319                 0.2261    
             0.5300                 0.2346                 0.2290    
             0.5400                 0.2372                 0.2319    
             0.5500                 0.2398                 0.2347    
             0.5600                 0.2424                 0.2375    
             0.5700                 0.2449                 0.2403    
             0.5800                 0.2475                 0.2430    
             0.5900                 0.2499                 0.2457    
             0.6000                 0.2524                 0.2483    
             0.6100                 0.2549                 0.2510    
             0.6200                 0.2573                 0.2535    
             0.6300                 0.2597                 0.2561    
             0.6400                 0.2621                 0.2586    
             0.6500                 0.2645                 0.2611    
             0.6600                 0.2668                 0.2636    
             0.6700                 0.2692                 0.2660    
             0.6800                 0.2715                 0.2684    
             0.6900                 0.2738                 0.2708    
             0.7000                 0.2761                 0.2731    
             0.7100                 0.2783                 0.2754    
             0.7200                 0.2805                 0.2777    
             0.7300                 0.2827                 0.2800    
             0.7400                 0.2849                 0.2822    
             0.7500                 0.2870                 0.2844    
             0.7600                 0.2890                 0.2866    
             0.7700                 0.2911                 0.2888    
             0.7800                 0.2931                 0.2909    
             0.7900                 0.2951                 0.2930    
             0.8000                 0.2971                 0.2951    
             0.8100                 0.2990                 0.2971    
             0.8200                 0.3010                 0.2991    
             0.8300                 0.3029                 0.3011    
             0.8400                 0.3048                 0.3031    
             0.8500                 0.3068                 0.3051    
             0.8600                 0.3086                 0.3070    
             0.8700                 0.3105                 0.3089    
             0.8800                 0.3124                 0.3108    
             0.8900                 0.3142                 0.3126    
             0.9000                 0.3160                 0.3145    
             0.9100                 0.3177                 0.3163    
             0.9200                 0.3194                 0.3181    
             0.9300                 0.3212                 0.3199    
             0.9400                 0.3229                 0.3216    
             0.9500                 0.3245                 0.3233    
             0.9600                 0.3261                 0.3251    
             0.9700                 0.3277                 0.3267    
             0.9800                 0.3293                 0.3284    
             0.9900                 0.3308                 0.3301    
              1.000                 0.3324                 0.3317    
              1.010                 0.3339                 0.3333    
              1.020                 0.3354                 0.3349    
              1.030                 0.3370                 0.3365    
              1.040                 0.3384                 0.3380    
              1.050                 0.3399                 0.3396    
              1.060                 0.3413                 0.3411    
              1.070                 0.3427                 0.3426    
              1.080                 0.3442                 0.3441    
              1.090                 0.3456                 0.3455    
              1.100                 0.3470                 0.3470    
              1.110                 0.3484                 0.3484    
              1.120                 0.3497                 0.3498    
              1.130                 0.3510                 0.3512    
              1.140                 0.3523                 0.3526    
              1.150                 0.3535                 0.3540    
              1.160                 0.3547                 0.3553    
              1.170                 0.3559                 0.3567    
              1.180                 0.3571                 0.3580    
              1.190                 0.3583                 0.3593    
              1.200                 0.3594                 0.3606    
              1.210                 0.3605                 0.3619    
              1.220                 0.3617                 0.3631    
              1.230                 0.3628                 0.3644    
              1.240                 0.3640                 0.3656    
              1.250                 0.3651                 0.3668    
              1.260                 0.3662                 0.3681    
              1.270                 0.3674                 0.3692    
              1.280                 0.3685                 0.3704    
              1.290                 0.3696                 0.3716    
              1.300                 0.3706                 0.3728    
              1.310                 0.3717                 0.3739    
              1.320                 0.3728                 0.3750    
              1.330                 0.3739                 0.3762    
              1.340                 0.3750                 0.3773    
              1.350                 0.3761                 0.3784    
              1.360                 0.3773                 0.3795    
              1.370                 0.3785                 0.3806    
              1.380                 0.3797                 0.3816    
              1.390                 0.3809                 0.3827    
              1.400                 0.3822                 0.3837    
              1.410                 0.3834                 0.3848    
              1.420                 0.3847                 0.3858    
              1.430                 0.3860                 0.3868    
              1.440                 0.3872                 0.3878    
              1.450                 0.3884                 0.3888    
              1.460                 0.3897                 0.3898    
              1.470                 0.3909                 0.3908    
              1.480                 0.3920                 0.3918    
              1.490                 0.3932                 0.3928    
              1.500                 0.3944                 0.3938    
              1.510                 0.3955                 0.3947    
              1.520                 0.3967                 0.3957    
              1.530                 0.3978                 0.3966    
              1.540                 0.3989                 0.3976    
              1.550                 0.4000                 0.3985    
              1.560                 0.4011                 0.3994    
              1.570                 0.4022                 0.4003    
              1.580                 0.4032                 0.4013    
              1.590                 0.4043                 0.4022    
              1.600                 0.4052                 0.4031    

          FITTING ERROR:    1.445    


     HYPERELASTICITY - POLYNOMIAL STRAIN ENERGY FUNCTION WITH N =   3

                       D1                C10               C01
                       D2                C20               C11               C02
                       D3                C30               C21               C12               C03
 
                   0.00000000       0.108777406        0.00000000    
                   0.00000000      -3.950154307E-03    0.00000000        0.00000000    
                   0.00000000       1.494638068E-04    0.00000000        0.00000000        0.00000000    



                       STABILITY LIMIT INFORMATION


        UNIAXIAL TENSION:        STABLE FOR ALL STRAINS
        UNIAXIAL COMPRESSION:    STABLE FOR ALL STRAINS
        BIAXIAL TENSION:         STABLE FOR ALL STRAINS
        BIAXIAL COMPRESSION:     STABLE FOR ALL STRAINS
        PLANAR TENSION:          STABLE FOR ALL STRAINS
        PLANAR COMPRESSION:      STABLE FOR ALL STRAINS
        VOLUMETRIC TENSION:      STABLE FOR ALL VOLUME RATIOS
        VOLUMETRIC COMPRESSION:  STABLE FOR ALL VOLUME RATIOS



  MATERIAL NAME: VAN_DER_WAALS                                                                   


     HYPERELASTIC MATERIAL PROPERTIES




          UNIAXIAL TEST DATA

          NOMINAL STRAIN     NOMINAL STRESS(TEST)     NOMINAL STRESS(Abaqus)           
            -0.3000                -0.2274                -0.2819    
            -0.2900                -0.2168                -0.2686    
            -0.2800                -0.2067                -0.2557    
            -0.2700                -0.1971                -0.2432    
            -0.2600                -0.1880                -0.2310    
            -0.2500                -0.1793                -0.2192    
            -0.2400                -0.1708                -0.2077    
            -0.2300                -0.1627                -0.1966    
            -0.2200                -0.1549                -0.1857    
            -0.2100                -0.1473                -0.1751    
            -0.2000                -0.1400                -0.1648    
            -0.1900                -0.1328                -0.1548    
            -0.1800                -0.1257                -0.1450    
            -0.1700                -0.1187                -0.1354    
            -0.1600                -0.1118                -0.1261    
            -0.1500                -0.1049                -0.1169    
            -0.1400                -9.7990E-02            -0.1080    
            -0.1300                -9.1000E-02            -9.9254E-02
            -0.1200                -8.3890E-02            -9.0703E-02
            -0.1100                -7.6730E-02            -8.2328E-02
            -0.1000                -6.9530E-02            -7.4124E-02
            -9.0000E-02            -6.2290E-02            -6.6083E-02
            -8.0000E-02            -5.5050E-02            -5.8198E-02
            -7.0000E-02            -4.7820E-02            -5.0461E-02
            -6.0000E-02            -4.0610E-02            -4.2868E-02
            -5.0000E-02            -3.3410E-02            -3.5412E-02
            -4.0000E-02            -2.6260E-02            -2.8087E-02
            -3.0000E-02            -1.9160E-02            -2.0889E-02
            -2.0000E-02            -1.2130E-02            -1.3811E-02
            -1.0000E-02            -5.3710E-03            -6.8497E-03
             1.0000E-02             9.5380E-03             6.7142E-03
             2.0000E-02             1.7450E-02             1.3270E-02
             3.0000E-02             2.4890E-02             1.9674E-02
             4.0000E-02             3.1980E-02             2.5931E-02
             5.0000E-02             3.8760E-02             3.2048E-02
             6.0000E-02             4.5340E-02             3.8029E-02
             7.0000E-02             5.1730E-02             4.3880E-02
             8.0000E-02             5.7940E-02             4.9604E-02
             9.0000E-02             6.4000E-02             5.5208E-02
             0.1000                 6.9880E-02             6.0694E-02
             0.1100                 7.5610E-02             6.6068E-02
             0.1200                 8.1180E-02             7.1333E-02
             0.1300                 8.6640E-02             7.6493E-02
             0.1400                 9.1970E-02             8.1552E-02
             0.1500                 9.7160E-02             8.6512E-02
             0.1600                 0.1022                 9.1378E-02
             0.1700                 0.1071                 9.6152E-02
             0.1800                 0.1119                 0.1008    
             0.1900                 0.1166                 0.1054    
             0.2000                 0.1212                 0.1100    
             0.2100                 0.1258                 0.1144    
             0.2200                 0.1302                 0.1187    
             0.2300                 0.1346                 0.1230    
             0.2400                 0.1388                 0.1272    
             0.2500                 0.1430                 0.1314    
             0.2600                 0.1471                 0.1355    
             0.2700                 0.1511                 0.1395    
             0.2800                 0.1551                 0.1434    
             0.2900                 0.1589                 0.1473    
             0.3000                 0.1627                 0.1511    
             0.3100                 0.1665                 0.1548    
             0.3200                 0.1702                 0.1585    
             0.3300                 0.1737                 0.1622    
             0.3400                 0.1773                 0.1658    
             0.3500                 0.1807                 0.1693    
             0.3600                 0.1841                 0.1728    
             0.3700                 0.1875                 0.1762    
             0.3800                 0.1907                 0.1796    
             0.3900                 0.1940                 0.1829    
             0.4000                 0.1971                 0.1862    
             0.4100                 0.2002                 0.1895    
             0.4200                 0.2032                 0.1927    
             0.4300                 0.2063                 0.1958    
             0.4400                 0.2093                 0.1990    
             0.4500                 0.2123                 0.2020    
             0.4600                 0.2152                 0.2051    
             0.4700                 0.2181                 0.2081    
             0.4800                 0.2210                 0.2110    
             0.4900                 0.2237                 0.2139    
             0.5000                 0.2265                 0.2168    
             0.5100                 0.2292                 0.2197    
             0.5200                 0.2319                 0.2225    
             0.5300                 0.2346                 0.2253    
             0.5400                 0.2372                 0.2280    
             0.5500                 0.2398                 0.2308    
             0.5600                 0.2424                 0.2334    
             0.5700                 0.2449                 0.2361    
             0.5800                 0.2475                 0.2387    
             0.5900                 0.2499                 0.2413    
             0.6000                 0.2524                 0.2439    
             0.6100                 0.2549                 0.2464    
             0.6200                 0.2573                 0.2489    
             0.6300                 0.2597                 0.2514    
             0.6400                 0.2621                 0.2539    
             0.6500                 0.2645                 0.2563    
             0.6600                 0.2668                 0.2587    
             0.6700                 0.2692                 0.2611    
             0.6800                 0.2715                 0.2635    
             0.6900                 0.2738                 0.2658    
             0.7000                 0.2761                 0.2681    
             0.7100                 0.2783                 0.2704    
             0.7200                 0.2805                 0.2726    
             0.7300                 0.2827                 0.2749    
             0.7400                 0.2849                 0.2771    
             0.7500                 0.2870                 0.2793    
             0.7600                 0.2890                 0.2815    
             0.7700                 0.2911                 0.2836    
             0.7800                 0.2931                 0.2858    
             0.7900                 0.2951                 0.2879    
             0.8000                 0.2971                 0.2900    
             0.8100                 0.2990                 0.2920    
             0.8200                 0.3010                 0.2941    
             0.8300                 0.3029                 0.2961    
             0.8400                 0.3048                 0.2981    
             0.8500                 0.3068                 0.3001    
             0.8600                 0.3086                 0.3021    
             0.8700                 0.3105                 0.3041    
             0.8800                 0.3124                 0.3060    
             0.8900                 0.3142                 0.3080    
             0.9000                 0.3160                 0.3099    
             0.9100                 0.3177                 0.3118    
             0.9200                 0.3194                 0.3137    
             0.9300                 0.3212                 0.3155    
             0.9400                 0.3229                 0.3174    
             0.9500                 0.3245                 0.3192    
             0.9600                 0.3261                 0.3210    
             0.9700                 0.3277                 0.3228    
             0.9800                 0.3293                 0.3246    
             0.9900                 0.3308                 0.3264    
              1.000                 0.3324                 0.3281    
              1.010                 0.3339                 0.3299    
              1.020                 0.3354                 0.3316    
              1.030                 0.3370                 0.3333    
              1.040                 0.3384                 0.3350    
              1.050                 0.3399                 0.3367    
              1.060                 0.3413                 0.3383    
              1.070                 0.3427                 0.3400    
              1.080                 0.3442                 0.3416    
              1.090                 0.3456                 0.3433    
              1.100                 0.3470                 0.3449    
              1.110                 0.3484                 0.3465    
              1.120                 0.3497                 0.3481    
              1.130                 0.3510                 0.3497    
              1.140                 0.3523                 0.3512    
              1.150                 0.3535                 0.3528    
              1.160                 0.3547                 0.3543    
              1.170                 0.3559                 0.3558    
              1.180                 0.3571                 0.3574    
              1.190                 0.3583                 0.3589    
              1.200                 0.3594                 0.3604    
              1.210                 0.3605                 0.3618    
              1.220                 0.3617                 0.3633    
              1.230                 0.3628                 0.3648    
              1.240                 0.3640                 0.3662    
              1.250                 0.3651                 0.3677    
              1.260                 0.3662                 0.3691    
              1.270                 0.3674                 0.3705    
              1.280                 0.3685                 0.3719    
              1.290                 0.3696                 0.3733    
              1.300                 0.3706                 0.3747    
              1.310                 0.3717                 0.3760    
              1.320                 0.3728                 0.3774    
              1.330                 0.3739                 0.3788    
              1.340                 0.3750                 0.3801    
              1.350                 0.3761                 0.3814    
              1.360                 0.3773                 0.3828    
              1.370                 0.3785                 0.3841    
              1.380                 0.3797                 0.3854    
              1.390                 0.3809                 0.3867    
              1.400                 0.3822                 0.3879    
              1.410                 0.3834                 0.3892    
              1.420                 0.3847                 0.3905    
              1.430                 0.3860                 0.3917    
              1.440                 0.3872                 0.3930    
              1.450                 0.3884                 0.3942    
              1.460                 0.3897                 0.3954    
              1.470                 0.3909                 0.3966    
              1.480                 0.3920                 0.3978    
              1.490                 0.3932                 0.3990    
              1.500                 0.3944                 0.4002    
              1.510                 0.3955                 0.4014    
              1.520                 0.3967                 0.4025    
              1.530                 0.3978                 0.4037    
              1.540                 0.3989                 0.4049    
              1.550                 0.4000                 0.4060    
              1.560                 0.4011                 0.4071    
              1.570                 0.4022                 0.4083    
              1.580                 0.4032                 0.4094    
              1.590                 0.4043                 0.4105    
              1.600                 0.4052                 0.4116    

          FITTING ERROR:    1.436    


     HYPERELASTICITY - VAN DER WAALS STRAIN ENERGY FUNCTION

                       MU             LAMBDA_M              A              BETA               D
                  0.226512830        83.1897024       0.189559229        0.00000000        0.00000000    



                       STABILITY LIMIT INFORMATION



 ***WARNING: UNSTABLE HYPERELASTIC MATERIAL


        UNIAXIAL TENSION:        UNSTABLE AT A NOMINAL STRAIN LARGER THAN        4.6200
        UNIAXIAL COMPRESSION:    UNSTABLE AT A NOMINAL STRAIN LESS THAN         -0.9366
        BIAXIAL TENSION:         UNSTABLE AT A NOMINAL STRAIN LARGER THAN        2.9700
        BIAXIAL COMPRESSION:     UNSTABLE AT A NOMINAL STRAIN LESS THAN         -0.5782
        PLANAR TENSION:          UNSTABLE AT A NOMINAL STRAIN LARGER THAN        4.5300
        PLANAR COMPRESSION:      UNSTABLE AT A NOMINAL STRAIN LESS THAN         -0.8192
        VOLUMETRIC TENSION:      STABLE FOR ALL VOLUME RATIOS
        VOLUMETRIC COMPRESSION:  STABLE FOR ALL VOLUME RATIOS





                                 E L E M E N T   S E T S


  SET    MASS                                                                            
  MEMBERS                    1





                                 N O D E   D E F I N I T I O N S

       NODE           COORDINATES                       SINGLE POINT CONSTRAINTS 
      NUMBER                                              TYPE    PLUS    DOF

          1     0.0000       0.0000       0.0000                                                                             
 6.01347-154



                            P R O B L E M   S I Z E


          NUMBER OF ELEMENTS IS                                     1
          NUMBER OF NODES IS                                        1
          NUMBER OF NODES DEFINED BY THE USER                       1
          TOTAL NUMBER OF VARIABLES IN THE MODEL                    3
          (DEGREES OF FREEDOM PLUS MAX NO. OF ANY LAGRANGE MULTIPLIER
           VARIABLES. INCLUDE *PRINT,SOLVE=YES TO GET THE ACTUAL NUMBER.)



                              END OF USER INPUT PROCESSING



     JOB TIME SUMMARY
       USER TIME (SEC)      =  0.10000    
       SYSTEM TIME (SEC)    =   0.0000    
       TOTAL CPU TIME (SEC) =  0.10000    
       WALLCLOCK TIME (SEC) =          0
